<legacy-repo-root>/Stages/results/ERDRP_redocked.pdbqt
 OpenBabel02282618023D

 37 40  0  0  1  0  0  0  0  0999 V2000
  135.0230  136.7840  151.2190 C   0  0  0  0  0  3  0  0  0  0  0  0
  135.7880  137.3910  150.0500 C   0  0  0  0  0  3  0  0  0  0  0  0
  133.5330  136.4890  151.0730 C   0  0  0  0  0  0  0  0  0  0  0  0
  132.8030  136.7990  149.7750 C   0  0  0  0  0  3  0  0  0  0  0  0
  133.5690  137.4050  148.6080 C   0  0  0  0  0  3  0  0  0  0  0  0
  135.0600  137.6830  148.7410 C   0  0  0  0  0  0  0  0  0  0  0  0
  135.7710  138.2920  147.6410 N   0  0  0  0  0  0  0  0  0  0  0  0
  136.1620  137.6310  146.4130 C   0  0  0  0  0  0  0  0  0  0  0  0
  135.9380  136.4880  146.2080 O   0  0  0  0  0  0  0  0  0  0  0  0
  136.0100  139.2430  147.7330 H   0  0  0  0  0  0  0  0  0  0  0  0
  136.8500  138.5320  145.3960 C   0  0  0  0  0  0  0  0  0  0  0  0
  136.3310  139.3610  144.4980 N   0  0  0  0  0  0  0  0  0  0  0  0
  137.3860  139.9640  143.8250 N   0  0  0  0  0  0  0  0  0  0  0  0
  138.5210  139.4930  144.3270 C   0  0  0  0  0  0  0  0  0  0  0  0
  138.2050  138.6080  145.3060 C   0  0  0  0  0  3  0  0  0  0  0  0
  134.9250  139.6060  144.2430 C   0  0  0  0  0  1  0  0  0  0  0  0
  139.9420  139.8560  143.9120 C   0  0  0  0  0  0  0  0  0  0  0  0
  140.3880  138.9700  142.9780 F   0  0  0  0  0  0  0  0  0  0  0  0
  140.7630  139.8270  144.9990 F   0  0  0  0  0  0  0  0  0  0  0  0
  139.9360  141.1110  143.3790 F   0  0  0  0  0  0  0  0  0  0  0  0
  132.6050  135.7800  152.4530 S   0  0  0  0  0  0  0  0  0  0  0  0
  133.4800  135.1490  153.4350 O   0  0  0  0  0  0  0  0  0  0  0  0
  131.7990  134.6490  151.9950 O   0  0  0  0  0  0  0  0  0  0  0  0
  131.6500  137.0230  153.1390 N   0  0  0  0  0  0  0  0  0  0  0  0
  131.0930  136.8660  154.5480 C   0  0  1  0  0  3  0  0  0  0  0  0
  132.0310  138.4870  152.9450 C   0  0  0  0  0  2  0  0  0  0  0  0
  131.9840  137.4810  155.6160 C   0  0  0  0  0  2  0  0  0  0  0  0
  132.9130  139.0490  154.0480 C   0  0  0  0  0  2  0  0  0  0  0  0
  132.3250  138.8670  155.3550 C   0  0  0  0  0  2  0  0  0  0  0  0
  129.7240  137.5010  154.6170 C   0  0  0  0  0  2  0  0  0  0  0  0
  128.7070  136.5340  154.0180 C   0  0  0  0  0  2  0  0  0  0  0  0
  127.5720  137.0880  153.9570 N   0  0  0  0  0  0  0  0  0  0  0  0
  126.6180  136.2540  154.5040 C   0  0  0  0  0  2  0  0  0  0  0  0
  127.6020  138.3190  154.5820 C   0  0  0  0  0  2  0  0  0  0  0  0
  125.2370  136.9030  154.4890 C   0  0  0  0  0  2  0  0  0  0  0  0
  126.2260  138.9830  154.5840 C   0  0  0  0  0  2  0  0  0  0  0  0
  125.2470  138.1480  155.0930 O   0  0  0  0  0  0  0  0  0  0  0  0
  2  1  2  0  0  0  0
  3  1  1  0  0  0  0
  3 21  1  0  0  0  0
  4  3  2  0  0  0  0
  5  6  2  0  0  0  0
  5  4  1  0  0  0  0
  6  2  1  0  0  0  0
  7 10  1  0  0  0  0
  7  6  1  0  0  0  0
  8  7  1  0  0  0  0
  9  8  2  0  0  0  0
 11  8  1  0  0  0  0
 12 11  1  0  0  0  0
 13 14  2  0  0  0  0
 13 12  1  0  0  0  0
 14 15  1  0  0  0  0
 15 11  2  0  0  0  0
 16 12  1  0  0  0  0
 17 14  1  0  0  0  0
 17 19  1  0  0  0  0
 18 17  1  0  0  0  0
 20 17  1  0  0  0  0
 21 24  1  0  0  0  0
 21 22  2  0  0  0  0
 23 21  2  0  0  0  0
 24 25  1  0  0  0  0
 25 30  1  6  0  0  0
 25 27  1  0  0  0  0
 26 24  1  0  0  0  0
 26 28  1  0  0  0  0
 28 29  1  0  0  0  0
 29 27  1  0  0  0  0
 31 30  1  0  0  0  0
 32 31  1  0  0  0  0
 32 33  1  0  0  0  0
 32 34  1  0  0  0  0
 34 36  1  0  0  0  0
 35 33  1  0  0  0  0
 35 37  1  0  0  0  0
 36 37  1  0  0  0  0
M  END
>  <MODEL>
1

>  <REMARK>
 VINA RESULT:    -9.179      0.000      0.000
 INTER + INTRA:         -14.691
 INTER:                 -13.472
 INTRA:                  -1.218
 UNBOUND:                -1.218
 SMILES Cn1nc(C(F)(F)F)cc1C(=O)Nc1ccc(S(=O)(=O)N2CCCC[C@H]2CCN2CCOCC2)cc1
 SMILES IDX 16 1 15 2 17 3 35 4 36 5 14 6 13 7 11 8 12 9 10 11 2 12 3 13
 SMILES IDX 4 14 9 15 1 16 5 17 6 18 7 19 8 20 18 21 19 22 20 23 21 24
 SMILES IDX 26 25 22 26 25 27 23 28 24 29 27 30 28 31 29 32 30 33 34 34
 SMILES IDX 31 35 33 36 32 37
 H PARENT 13 10

>  <TORSDO>
F 8

$$$$
<legacy-repo-root>/Stages/results/ERDRP_redocked.pdbqt
 OpenBabel02282618023D

 37 40  0  0  1  0  0  0  0  0999 V2000
  135.5940  137.0690  150.4390 C   0  0  0  0  0  3  0  0  0  0  0  0
  136.3780  137.5990  149.2450 C   0  0  0  0  0  3  0  0  0  0  0  0
  134.1050  136.7760  150.2920 C   0  0  0  0  0  0  0  0  0  0  0  0
  133.3930  137.0100  148.9690 C   0  0  0  0  0  3  0  0  0  0  0  0
  134.1770  137.5390  147.7760 C   0  0  0  0  0  3  0  0  0  0  0  0
  135.6690  137.8140  147.9120 C   0  0  0  0  0  0  0  0  0  0  0  0
  136.3980  138.3510  146.7860 N   0  0  0  0  0  0  0  0  0  0  0  0
  137.3040  137.6120  145.9310 C   0  0  0  0  0  0  0  0  0  0  0  0
  137.5450  136.4660  146.1010 O   0  0  0  0  0  0  0  0  0  0  0  0
  136.2660  139.3040  146.5800 H   0  0  0  0  0  0  0  0  0  0  0  0
  137.8910  138.4170  144.7790 C   0  0  0  0  0  0  0  0  0  0  0  0
  137.3750  138.7130  143.5920 N   0  0  0  0  0  0  0  0  0  0  0  0
  138.3060  139.4870  142.9110 N   0  0  0  0  0  0  0  0  0  0  0  0
  139.3640  139.6460  143.6960 C   0  0  0  0  0  0  0  0  0  0  0  0
  139.1200  138.9930  144.8590 C   0  0  0  0  0  3  0  0  0  0  0  0
  136.0810  138.3110  143.0750 C   0  0  0  0  0  1  0  0  0  0  0  0
  140.6410  140.4190  143.3870 C   0  0  0  0  0  0  0  0  0  0  0  0
  140.6140  141.6250  144.0220 F   0  0  0  0  0  0  0  0  0  0  0  0
  140.7520  140.6130  142.0430 F   0  0  0  0  0  0  0  0  0  0  0  0
  141.7090  139.6980  143.8330 F   0  0  0  0  0  0  0  0  0  0  0  0
  133.1540  136.1580  151.7010 S   0  0  0  0  0  0  0  0  0  0  0  0
  133.9050  135.1790  152.4810 O   0  0  0  0  0  0  0  0  0  0  0  0
  132.0160  135.3670  151.2380 O   0  0  0  0  0  0  0  0  0  0  0  0
  132.6710  137.5050  152.6410 N   0  0  0  0  0  0  0  0  0  0  0  0
  133.3340  137.7710  153.9870 C   0  0  1  0  0  3  0  0  0  0  0  0
  132.3940  138.8500  151.9790 C   0  0  0  0  0  2  0  0  0  0  0  0
  134.5070  138.7350  153.8950 C   0  0  0  0  0  2  0  0  0  0  0  0
  133.6000  139.7750  151.9260 C   0  0  0  0  0  2  0  0  0  0  0  0
  134.1770  139.9840  153.2340 C   0  0  0  0  0  2  0  0  0  0  0  0
  132.3080  138.3260  154.9470 C   0  0  0  0  0  2  0  0  0  0  0  0
  131.1340  137.3530  155.0210 C   0  0  0  0  0  2  0  0  0  0  0  0
  130.4500  137.5860  156.0580 N   0  0  0  0  0  0  0  0  0  0  0  0
  131.2490  138.1720  157.0190 C   0  0  0  0  0  2  0  0  0  0  0  0
  129.3540  138.3680  155.7500 C   0  0  0  0  0  2  0  0  0  0  0  0
  130.4520  138.5100  158.2760 C   0  0  0  0  0  2  0  0  0  0  0  0
  128.5460  138.7220  156.9970 C   0  0  0  0  0  2  0  0  0  0  0  0
  129.3370  139.2760  157.9880 O   0  0  0  0  0  0  0  0  0  0  0  0
  2  1  2  0  0  0  0
  3  1  1  0  0  0  0
  3 21  1  0  0  0  0
  4  3  2  0  0  0  0
  5  6  2  0  0  0  0
  5  4  1  0  0  0  0
  6  2  1  0  0  0  0
  7  6  1  0  0  0  0
  8  9  2  0  0  0  0
  8  7  1  0  0  0  0
 10  7  1  0  0  0  0
 11 15  2  0  0  0  0
 11  8  1  0  0  0  0
 12 11  1  0  0  0  0
 13 12  1  0  0  0  0
 13 14  2  0  0  0  0
 14 15  1  0  0  0  0
 16 12  1  0  0  0  0
 17 14  1  0  0  0  0
 17 20  1  0  0  0  0
 17 18  1  0  0  0  0
 19 17  1  0  0  0  0
 21 22  2  0  0  0  0
 21 24  1  0  0  0  0
 23 21  2  0  0  0  0
 24 25  1  0  0  0  0
 25 30  1  1  0  0  0
 26 24  1  0  0  0  0
 27 25  1  0  0  0  0
 28 26  1  0  0  0  0
 28 29  1  0  0  0  0
 29 27  1  0  0  0  0
 30 31  1  0  0  0  0
 31 32  1  0  0  0  0
 32 33  1  0  0  0  0
 33 35  1  0  0  0  0
 34 32  1  0  0  0  0
 34 36  1  0  0  0  0
 36 37  1  0  0  0  0
 37 35  1  0  0  0  0
M  END
>  <MODEL>
2

>  <REMARK>
 VINA RESULT:    -9.158      1.940      2.534
 INTER + INTRA:         -14.659
 INTER:                 -13.295
 INTRA:                  -1.364
 UNBOUND:                -1.218
 SMILES Cn1nc(C(F)(F)F)cc1C(=O)Nc1ccc(S(=O)(=O)N2CCCC[C@H]2CCN2CCOCC2)cc1
 SMILES IDX 16 1 15 2 17 3 35 4 36 5 14 6 13 7 11 8 12 9 10 11 2 12 3 13
 SMILES IDX 4 14 9 15 1 16 5 17 6 18 7 19 8 20 18 21 19 22 20 23 21 24
 SMILES IDX 26 25 22 26 25 27 23 28 24 29 27 30 28 31 29 32 30 33 34 34
 SMILES IDX 31 35 33 36 32 37
 H PARENT 13 10

>  <TORSDO>
F 8

$$$$
<legacy-repo-root>/Stages/results/ERDRP_redocked.pdbqt
 OpenBabel02282618023D

 37 40  0  0  1  0  0  0  0  0999 V2000
  133.6660  136.9450  149.1560 C   0  0  0  0  0  3  0  0  0  0  0  0
  134.6020  137.4000  148.0440 C   0  0  0  0  0  3  0  0  0  0  0  0
  134.2250  136.6750  150.5490 C   0  0  0  0  0  0  0  0  0  0  0  0
  135.7070  136.8510  150.8400 C   0  0  0  0  0  3  0  0  0  0  0  0
  136.6420  137.3060  149.7280 C   0  0  0  0  0  3  0  0  0  0  0  0
  136.0860  137.5960  148.3400 C   0  0  0  0  0  0  0  0  0  0  0  0
  136.9870  137.9920  147.2820 N   0  0  0  0  0  0  0  0  0  0  0  0
  137.2390  137.2530  146.0620 C   0  0  0  0  0  0  0  0  0  0  0  0
  136.7200  136.2170  145.8290 O   0  0  0  0  0  0  0  0  0  0  0  0
  137.4720  138.8400  147.4010 H   0  0  0  0  0  0  0  0  0  0  0  0
  138.1950  137.9350  145.0920 C   0  0  0  0  0  0  0  0  0  0  0  0
  139.3970  137.5610  144.6700 N   0  0  0  0  0  0  0  0  0  0  0  0
  139.8460  138.5240  143.7750 N   0  0  0  0  0  0  0  0  0  0  0  0
  138.9110  139.4590  143.6700 C   0  0  0  0  0  0  0  0  0  0  0  0
  137.8790  139.1060  144.4760 C   0  0  0  0  0  3  0  0  0  0  0  0
  140.1310  136.3720  145.0600 C   0  0  0  0  0  1  0  0  0  0  0  0
  138.9470  140.7160  142.8090 C   0  0  0  0  0  0  0  0  0  0  0  0
  138.1720  141.6840  143.3750 F   0  0  0  0  0  0  0  0  0  0  0  0
  138.4840  140.4340  141.5580 F   0  0  0  0  0  0  0  0  0  0  0  0
  140.2340  141.1560  142.7290 F   0  0  0  0  0  0  0  0  0  0  0  0
  133.1310  136.1230  151.8790 S   0  0  0  0  0  0  0  0  0  0  0  0
  133.7640  135.1180  152.7270 O   0  0  0  0  0  0  0  0  0  0  0  0
  131.9960  135.3850  151.3300 O   0  0  0  0  0  0  0  0  0  0  0  0
  132.6410  137.5040  152.7650 N   0  0  0  0  0  0  0  0  0  0  0  0
  133.2850  137.8130  154.1100 C   0  0  1  0  0  3  0  0  0  0  0  0
  132.3810  138.8270  152.0530 C   0  0  0  0  0  2  0  0  0  0  0  0
  134.4640  138.7680  154.0030 C   0  0  0  0  0  2  0  0  0  0  0  0
  133.5910  139.7440  151.9870 C   0  0  0  0  0  2  0  0  0  0  0  0
  134.1510  139.9950  153.2950 C   0  0  0  0  0  2  0  0  0  0  0  0
  132.2480  138.4060  155.0350 C   0  0  0  0  0  2  0  0  0  0  0  0
  131.0450  137.4680  155.0830 C   0  0  0  0  0  2  0  0  0  0  0  0
  130.4100  137.6400  156.1620 N   0  0  0  0  0  0  0  0  0  0  0  0
  131.2380  138.2250  157.0990 C   0  0  0  0  0  2  0  0  0  0  0  0
  129.2710  138.3880  155.9390 C   0  0  0  0  0  2  0  0  0  0  0  0
  130.4970  138.4900  158.4080 C   0  0  0  0  0  2  0  0  0  0  0  0
  128.5190  138.6710  157.2380 C   0  0  0  0  0  2  0  0  0  0  0  0
  129.3410  139.2220  158.2050 O   0  0  0  0  0  0  0  0  0  0  0  0
  1  3  1  0  0  0  0
  2  6  1  0  0  0  0
  2  1  2  0  0  0  0
  3  4  2  0  0  0  0
  3 21  1  0  0  0  0
  5  4  1  0  0  0  0
  6  5  2  0  0  0  0
  7 10  1  0  0  0  0
  7  6  1  0  0  0  0
  8  7  1  0  0  0  0
  9  8  2  0  0  0  0
 11  8  1  0  0  0  0
 12 16  1  0  0  0  0
 12 11  1  0  0  0  0
 13 12  1  0  0  0  0
 14 13  2  0  0  0  0
 14 15  1  0  0  0  0
 15 11  2  0  0  0  0
 17 18  1  0  0  0  0
 17 14  1  0  0  0  0
 19 17  1  0  0  0  0
 20 17  1  0  0  0  0
 21 22  2  0  0  0  0
 21 24  1  0  0  0  0
 23 21  2  0  0  0  0
 24 25  1  0  0  0  0
 25 30  1  1  0  0  0
 26 24  1  0  0  0  0
 27 25  1  0  0  0  0
 28 26  1  0  0  0  0
 28 29  1  0  0  0  0
 29 27  1  0  0  0  0
 30 31  1  0  0  0  0
 31 32  1  0  0  0  0
 32 33  1  0  0  0  0
 33 35  1  0  0  0  0
 34 32  1  0  0  0  0
 34 36  1  0  0  0  0
 36 37  1  0  0  0  0
 37 35  1  0  0  0  0
M  END
>  <MODEL>
3

>  <REMARK>
 VINA RESULT:    -9.105      2.122      2.978
 INTER + INTRA:         -14.581
 INTER:                 -13.322
 INTRA:                  -1.260
 UNBOUND:                -1.218
 SMILES Cn1nc(C(F)(F)F)cc1C(=O)Nc1ccc(S(=O)(=O)N2CCCC[C@H]2CCN2CCOCC2)cc1
 SMILES IDX 16 1 15 2 17 3 35 4 36 5 14 6 13 7 11 8 12 9 10 11 2 12 3 13
 SMILES IDX 4 14 9 15 1 16 5 17 6 18 7 19 8 20 18 21 19 22 20 23 21 24
 SMILES IDX 26 25 22 26 25 27 23 28 24 29 27 30 28 31 29 32 30 33 34 34
 SMILES IDX 31 35 33 36 32 37
 H PARENT 13 10

>  <TORSDO>
F 8

$$$$
<legacy-repo-root>/Stages/results/ERDRP_redocked.pdbqt
 OpenBabel02282618023D

 37 40  0  0  1  0  0  0  0  0999 V2000
  133.5830  136.5560  151.5960 C   0  0  0  0  0  3  0  0  0  0  0  0
  132.3010  136.4080  152.4060 C   0  0  0  0  0  3  0  0  0  0  0  0
  134.1100  137.9490  151.2690 C   0  0  0  0  0  0  0  0  0  0  0  0
  133.3690  139.1910  151.7370 C   0  0  0  0  0  3  0  0  0  0  0  0
  132.0880  139.0420  152.5460 C   0  0  0  0  0  3  0  0  0  0  0  0
  131.5680  137.6530  152.8940 C   0  0  0  0  0  0  0  0  0  0  0  0
  130.3320  137.5220  153.6310 N   0  0  0  0  0  0  0  0  0  0  0  0
  130.2140  137.3270  155.0610 C   0  0  0  0  0  0  0  0  0  0  0  0
  131.1560  137.2400  155.7700 O   0  0  0  0  0  0  0  0  0  0  0  0
  129.4960  137.5690  153.1150 H   0  0  0  0  0  0  0  0  0  0  0  0
  128.7830  137.2800  155.5800 C   0  0  0  0  0  0  0  0  0  0  0  0
  128.2340  137.8790  156.6310 N   0  0  0  0  0  0  0  0  0  0  0  0
  126.8910  137.5250  156.6610 N   0  0  0  0  0  0  0  0  0  0  0  0
  126.6510  136.7230  155.6300 C   0  0  0  0  0  0  0  0  0  0  0  0
  127.8130  136.5660  154.9480 C   0  0  0  0  0  3  0  0  0  0  0  0
  128.8940  138.7430  157.5890 C   0  0  0  0  0  1  0  0  0  0  0  0
  125.3250  136.0780  155.2440 C   0  0  0  0  0  0  0  0  0  0  0  0
  125.4960  134.7350  155.0900 F   0  0  0  0  0  0  0  0  0  0  0  0
  124.8690  136.6180  154.0790 F   0  0  0  0  0  0  0  0  0  0  0  0
  124.4200  136.3080  156.2370 F   0  0  0  0  0  0  0  0  0  0  0  0
  135.6240  138.1450  150.2980 S   0  0  0  0  0  0  0  0  0  0  0  0
  136.6050  137.1070  150.5980 O   0  0  0  0  0  0  0  0  0  0  0  0
  136.3330  139.3580  150.7030 O   0  0  0  0  0  0  0  0  0  0  0  0
  135.1880  138.1680  148.6430 N   0  0  0  0  0  0  0  0  0  0  0  0
  134.9520  136.8600  147.9000 C   0  0  1  0  0  3  0  0  0  0  0  0
  134.1860  139.1930  148.1210 C   0  0  0  0  0  2  0  0  0  0  0  0
  133.4920  136.4350  147.8880 C   0  0  0  0  0  2  0  0  0  0  0  0
  132.7460  138.7080  148.1230 C   0  0  0  0  0  2  0  0  0  0  0  0
  132.5940  137.4660  147.4010 C   0  0  0  0  0  2  0  0  0  0  0  0
  135.4410  136.9990  146.4770 C   0  0  0  0  0  2  0  0  0  0  0  0
  136.9400  137.2840  146.5030 C   0  0  0  0  0  2  0  0  0  0  0  0
  137.1940  138.3070  145.8050 N   0  0  0  0  0  0  0  0  0  0  0  0
  138.3920  138.1320  145.1420 C   0  0  0  0  0  2  0  0  0  0  0  0
  136.1540  138.5690  144.9340 C   0  0  0  0  0  2  0  0  0  0  0  0
  138.7160  139.3290  144.2530 C   0  0  0  0  0  2  0  0  0  0  0  0
  136.4630  139.7600  144.0300 C   0  0  0  0  0  2  0  0  0  0  0  0
  137.6800  139.6210  143.3850 O   0  0  0  0  0  0  0  0  0  0  0  0
  1  2  1  0  0  0  0
  2  6  2  0  0  0  0
  3  1  2  0  0  0  0
  3  4  1  0  0  0  0
  4  5  2  0  0  0  0
  5  6  1  0  0  0  0
  6  7  1  0  0  0  0
  7  8  1  0  0  0  0
  8 11  1  0  0  0  0
  8  9  2  0  0  0  0
 10  7  1  0  0  0  0
 11 12  1  0  0  0  0
 12 13  1  0  0  0  0
 12 16  1  0  0  0  0
 14 13  2  0  0  0  0
 15 11  2  0  0  0  0
 15 14  1  0  0  0  0
 17 14  1  0  0  0  0
 17 20  1  0  0  0  0
 18 17  1  0  0  0  0
 19 17  1  0  0  0  0
 21 22  2  0  0  0  0
 21 23  2  0  0  0  0
 21  3  1  0  0  0  0
 24 21  1  0  0  0  0
 25 30  1  6  0  0  0
 25 24  1  0  0  0  0
 26 28  1  0  0  0  0
 26 24  1  0  0  0  0
 27 25  1  0  0  0  0
 29 27  1  0  0  0  0
 29 28  1  0  0  0  0
 30 31  1  0  0  0  0
 32 31  1  0  0  0  0
 33 32  1  0  0  0  0
 34 32  1  0  0  0  0
 35 33  1  0  0  0  0
 36 34  1  0  0  0  0
 37 36  1  0  0  0  0
 37 35  1  0  0  0  0
M  END
>  <MODEL>
4

>  <REMARK>
 VINA RESULT:    -8.809      5.973     12.028
 INTER + INTRA:         -14.146
 INTER:                 -12.705
 INTRA:                  -1.441
 UNBOUND:                -1.218
 SMILES Cn1nc(C(F)(F)F)cc1C(=O)Nc1ccc(S(=O)(=O)N2CCCC[C@H]2CCN2CCOCC2)cc1
 SMILES IDX 16 1 15 2 17 3 35 4 36 5 14 6 13 7 11 8 12 9 10 11 2 12 3 13
 SMILES IDX 4 14 9 15 1 16 5 17 6 18 7 19 8 20 18 21 19 22 20 23 21 24
 SMILES IDX 26 25 22 26 25 27 23 28 24 29 27 30 28 31 29 32 30 33 34 34
 SMILES IDX 31 35 33 36 32 37
 H PARENT 13 10

>  <TORSDO>
F 8

$$$$
<legacy-repo-root>/Stages/results/ERDRP_redocked.pdbqt
 OpenBabel02282618023D

 37 40  0  0  1  0  0  0  0  0999 V2000
  132.3930  136.9370  148.4450 C   0  0  0  0  0  3  0  0  0  0  0  0
  132.0790  137.6850  147.1550 C   0  0  0  0  0  3  0  0  0  0  0  0
  133.1000  137.6630  149.5840 C   0  0  0  0  0  0  0  0  0  0  0  0
  133.5000  139.1230  149.4460 C   0  0  0  0  0  3  0  0  0  0  0  0
  133.1860  139.8700  148.1570 C   0  0  0  0  0  3  0  0  0  0  0  0
  132.4610  139.1560  147.0240 C   0  0  0  0  0  0  0  0  0  0  0  0
  132.2000  139.8620  145.7910 N   0  0  0  0  0  0  0  0  0  0  0  0
  131.3020  140.9870  145.6320 C   0  0  0  0  0  0  0  0  0  0  0  0
  130.6710  141.4280  146.5290 O   0  0  0  0  0  0  0  0  0  0  0  0
  132.6760  139.5510  144.9870 H   0  0  0  0  0  0  0  0  0  0  0  0
  131.2640  141.5770  144.2280 C   0  0  0  0  0  0  0  0  0  0  0  0
  132.2560  141.9760  143.4400 N   0  0  0  0  0  0  0  0  0  0  0  0
  131.6940  142.4210  142.2510 N   0  0  0  0  0  0  0  0  0  0  0  0
  130.3770  142.2820  142.3380 C   0  0  0  0  0  0  0  0  0  0  0  0
  130.0960  141.7560  143.5560 C   0  0  0  0  0  3  0  0  0  0  0  0
  133.6740  141.9640  143.7440 C   0  0  0  0  0  1  0  0  0  0  0  0
  129.3340  142.6350  141.2840 C   0  0  0  0  0  0  0  0  0  0  0  0
  128.1650  142.9840  141.8920 F   0  0  0  0  0  0  0  0  0  0  0  0
  129.1220  141.5650  140.4660 F   0  0  0  0  0  0  0  0  0  0  0  0
  129.7920  143.6870  140.5480 F   0  0  0  0  0  0  0  0  0  0  0  0
  133.4920  136.7880  151.1180 S   0  0  0  0  0  0  0  0  0  0  0  0
  134.9100  136.8790  151.4540 O   0  0  0  0  0  0  0  0  0  0  0  0
  133.3150  135.3480  150.9410 O   0  0  0  0  0  0  0  0  0  0  0  0
  132.4910  137.4200  152.3540 N   0  0  0  0  0  0  0  0  0  0  0  0
  131.8660  136.4840  153.3810 C   0  0  1  0  0  3  0  0  0  0  0  0
  132.8660  138.7160  153.0660 C   0  0  0  0  0  2  0  0  0  0  0  0
  132.6970  136.3450  154.6470 C   0  0  0  0  0  2  0  0  0  0  0  0
  133.6860  138.5130  154.3300 C   0  0  0  0  0  2  0  0  0  0  0  0
  133.0360  137.6170  155.2580 C   0  0  0  0  0  2  0  0  0  0  0  0
  130.4890  136.9890  153.7430 C   0  0  0  0  0  2  0  0  0  0  0  0
  129.5930  135.7890  154.0380 C   0  0  0  0  0  2  0  0  0  0  0  0
  128.8250  136.0560  155.0070 N   0  0  0  0  0  0  0  0  0  0  0  0
  128.8290  137.4170  155.2410 C   0  0  0  0  0  2  0  0  0  0  0  0
  127.5530  135.5780  154.7610 C   0  0  0  0  0  2  0  0  0  0  0  0
  127.8800  137.7890  156.3770 C   0  0  0  0  0  2  0  0  0  0  0  0
  126.5850  135.9460  155.8840 C   0  0  0  0  0  2  0  0  0  0  0  0
  126.6030  137.3020  156.1610 O   0  0  0  0  0  0  0  0  0  0  0  0
  1  3  1  0  0  0  0
  2  1  2  0  0  0  0
  3 21  1  0  0  0  0
  4  3  2  0  0  0  0
  5  4  1  0  0  0  0
  6  2  1  0  0  0  0
  6  5  2  0  0  0  0
  7  6  1  0  0  0  0
  8  7  1  0  0  0  0
  8  9  2  0  0  0  0
 10  7  1  0  0  0  0
 11  8  1  0  0  0  0
 12 16  1  0  0  0  0
 12 11  1  0  0  0  0
 13 14  2  0  0  0  0
 13 12  1  0  0  0  0
 14 15  1  0  0  0  0
 15 11  2  0  0  0  0
 17 18  1  0  0  0  0
 17 14  1  0  0  0  0
 19 17  1  0  0  0  0
 20 17  1  0  0  0  0
 21 22  2  0  0  0  0
 21 24  1  0  0  0  0
 23 21  2  0  0  0  0
 24 26  1  0  0  0  0
 24 25  1  0  0  0  0
 25 30  1  1  0  0  0
 25 27  1  0  0  0  0
 26 28  1  0  0  0  0
 27 29  1  0  0  0  0
 28 29  1  0  0  0  0
 30 31  1  0  0  0  0
 31 32  1  0  0  0  0
 32 33  1  0  0  0  0
 33 35  1  0  0  0  0
 34 32  1  0  0  0  0
 34 36  1  0  0  0  0
 36 37  1  0  0  0  0
 37 35  1  0  0  0  0
M  END
>  <MODEL>
5

>  <REMARK>
 VINA RESULT:    -8.805      4.525      5.495
 INTER + INTRA:         -14.141
 INTER:                 -13.246
 INTRA:                  -0.895
 UNBOUND:                -1.218
 SMILES Cn1nc(C(F)(F)F)cc1C(=O)Nc1ccc(S(=O)(=O)N2CCCC[C@H]2CCN2CCOCC2)cc1
 SMILES IDX 16 1 15 2 17 3 35 4 36 5 14 6 13 7 11 8 12 9 10 11 2 12 3 13
 SMILES IDX 4 14 9 15 1 16 5 17 6 18 7 19 8 20 18 21 19 22 20 23 21 24
 SMILES IDX 26 25 22 26 25 27 23 28 24 29 27 30 28 31 29 32 30 33 34 34
 SMILES IDX 31 35 33 36 32 37
 H PARENT 13 10

>  <TORSDO>
F 8

$$$$
<legacy-repo-root>/Stages/results/ERDRP_redocked.pdbqt
 OpenBabel02282618023D

 37 40  0  0  1  0  0  0  0  0999 V2000
  132.6560  138.1910  149.2710 C   0  0  0  0  0  3  0  0  0  0  0  0
  132.2710  138.5890  147.8510 C   0  0  0  0  0  3  0  0  0  0  0  0
  133.4200  136.8920  149.5080 C   0  0  0  0  0  0  0  0  0  0  0  0
  133.7990  135.9890  148.3450 C   0  0  0  0  0  3  0  0  0  0  0  0
  133.4140  136.3890  146.9270 C   0  0  0  0  0  3  0  0  0  0  0  0
  132.6690  137.6940  146.6820 C   0  0  0  0  0  0  0  0  0  0  0  0
  132.2760  138.0470  145.3370 N   0  0  0  0  0  0  0  0  0  0  0  0
  132.8980  139.0600  144.5100 C   0  0  0  0  0  0  0  0  0  0  0  0
  133.8050  139.7190  144.8870 O   0  0  0  0  0  0  0  0  0  0  0  0
  131.5180  137.5550  144.9480 H   0  0  0  0  0  0  0  0  0  0  0  0
  132.3170  139.1810  143.1070 C   0  0  0  0  0  0  0  0  0  0  0  0
  132.6930  138.6040  141.9720 N   0  0  0  0  0  0  0  0  0  0  0  0
  131.8240  139.0310  140.9760 N   0  0  0  0  0  0  0  0  0  0  0  0
  130.9390  139.8540  141.5250 C   0  0  0  0  0  0  0  0  0  0  0  0
  131.2280  139.9530  142.8460 C   0  0  0  0  0  3  0  0  0  0  0  0
  133.8070  137.6960  141.7800 C   0  0  0  0  0  1  0  0  0  0  0  0
  129.7880  140.5750  140.8330 C   0  0  0  0  0  0  0  0  0  0  0  0
  130.2320  141.7520  140.3080 F   0  0  0  0  0  0  0  0  0  0  0  0
  128.7910  140.8210  141.7280 F   0  0  0  0  0  0  0  0  0  0  0  0
  129.3140  139.7830  139.8300 F   0  0  0  0  0  0  0  0  0  0  0  0
  133.8740  136.3960  151.1860 S   0  0  0  0  0  0  0  0  0  0  0  0
  135.2630  136.7210  151.4970 O   0  0  0  0  0  0  0  0  0  0  0  0
  133.8710  134.9390  151.3040 O   0  0  0  0  0  0  0  0  0  0  0  0
  132.7770  137.1370  152.2700 N   0  0  0  0  0  0  0  0  0  0  0  0
  132.0260  136.2920  153.2910 C   0  0  1  0  0  3  0  0  0  0  0  0
  133.1190  138.4720  152.9250 C   0  0  0  0  0  2  0  0  0  0  0  0
  132.7240  136.2240  154.6400 C   0  0  0  0  0  2  0  0  0  0  0  0
  133.8050  138.3410  154.2760 C   0  0  0  0  0  2  0  0  0  0  0  0
  133.0400  137.5280  155.1940 C   0  0  0  0  0  2  0  0  0  0  0  0
  130.6360  136.8530  153.4780 C   0  0  0  0  0  2  0  0  0  0  0  0
  129.7170  135.7310  153.9550 C   0  0  0  0  0  2  0  0  0  0  0  0
  129.0350  136.1270  154.9430 N   0  0  0  0  0  0  0  0  0  0  0  0
  128.9200  137.5020  154.9060 C   0  0  0  0  0  2  0  0  0  0  0  0
  127.8010  135.5050  154.9580 C   0  0  0  0  0  2  0  0  0  0  0  0
  128.0650  138.0190  156.0610 C   0  0  0  0  0  2  0  0  0  0  0  0
  126.9280  136.0150  156.1020 C   0  0  0  0  0  2  0  0  0  0  0  0
  126.8310  137.3950  156.1070 O   0  0  0  0  0  0  0  0  0  0  0  0
  1  3  1  0  0  0  0
  2  1  2  0  0  0  0
  3 21  1  0  0  0  0
  4  3  2  0  0  0  0
  5  4  1  0  0  0  0
  6  5  2  0  0  0  0
  6  2  1  0  0  0  0
  7  6  1  0  0  0  0
  8  9  2  0  0  0  0
  8  7  1  0  0  0  0
 10  7  1  0  0  0  0
 11  8  1  0  0  0  0
 12 11  1  0  0  0  0
 13 14  2  0  0  0  0
 13 12  1  0  0  0  0
 14 15  1  0  0  0  0
 15 11  2  0  0  0  0
 16 12  1  0  0  0  0
 17 14  1  0  0  0  0
 17 19  1  0  0  0  0
 18 17  1  0  0  0  0
 20 17  1  0  0  0  0
 21 23  2  0  0  0  0
 21 22  2  0  0  0  0
 21 24  1  0  0  0  0
 24 26  1  0  0  0  0
 24 25  1  0  0  0  0
 25 30  1  1  0  0  0
 25 27  1  0  0  0  0
 26 28  1  0  0  0  0
 27 29  1  0  0  0  0
 28 29  1  0  0  0  0
 30 31  1  0  0  0  0
 31 32  1  0  0  0  0
 32 34  1  0  0  0  0
 33 32  1  0  0  0  0
 33 35  1  0  0  0  0
 34 36  1  0  0  0  0
 35 37  1  0  0  0  0
 36 37  1  0  0  0  0
M  END
>  <MODEL>
6

>  <REMARK>
 VINA RESULT:    -8.693      4.242      5.041
 INTER + INTRA:         -13.977
 INTER:                 -12.814
 INTRA:                  -1.163
 UNBOUND:                -1.218
 SMILES Cn1nc(C(F)(F)F)cc1C(=O)Nc1ccc(S(=O)(=O)N2CCCC[C@H]2CCN2CCOCC2)cc1
 SMILES IDX 16 1 15 2 17 3 35 4 36 5 14 6 13 7 11 8 12 9 10 11 2 12 3 13
 SMILES IDX 4 14 9 15 1 16 5 17 6 18 7 19 8 20 18 21 19 22 20 23 21 24
 SMILES IDX 26 25 22 26 25 27 23 28 24 29 27 30 28 31 29 32 30 33 34 34
 SMILES IDX 31 35 33 36 32 37
 H PARENT 13 10

>  <TORSDO>
F 8

$$$$
<legacy-repo-root>/Stages/results/ERDRP_redocked.pdbqt
 OpenBabel02282618023D

 37 40  0  0  1  0  0  0  0  0999 V2000
  135.4450  137.6460  149.4440 C   0  0  0  0  0  3  0  0  0  0  0  0
  134.7070  137.7160  150.7750 C   0  0  0  0  0  3  0  0  0  0  0  0
  134.7480  137.0480  148.2260 C   0  0  0  0  0  0  0  0  0  0  0  0
  133.3270  136.5150  148.3270 C   0  0  0  0  0  3  0  0  0  0  0  0
  132.5910  136.5850  149.6580 C   0  0  0  0  0  3  0  0  0  0  0  0
  133.2750  137.2010  150.8720 C   0  0  0  0  0  0  0  0  0  0  0  0
  132.5810  137.2290  152.1390 N   0  0  0  0  0  0  0  0  0  0  0  0
  132.0280  138.4060  152.7770 C   0  0  0  0  0  0  0  0  0  0  0  0
  132.1150  139.4860  152.3020 O   0  0  0  0  0  0  0  0  0  0  0  0
  132.4750  136.3730  152.6110 H   0  0  0  0  0  0  0  0  0  0  0  0
  131.2960  138.1360  154.0850 C   0  0  0  0  0  0  0  0  0  0  0  0
  131.7230  137.5560  155.2010 N   0  0  0  0  0  0  0  0  0  0  0  0
  130.6720  137.5680  156.1090 N   0  0  0  0  0  0  0  0  0  0  0  0
  129.6320  138.1550  155.5290 C   0  0  0  0  0  0  0  0  0  0  0  0
  130.0050  138.5160  154.2760 C   0  0  0  0  0  3  0  0  0  0  0  0
  133.0390  137.0000  155.4490 C   0  0  0  0  0  1  0  0  0  0  0  0
  128.2520  138.4010  156.1280 C   0  0  0  0  0  0  0  0  0  0  0  0
  128.3740  139.0950  157.2950 F   0  0  0  0  0  0  0  0  0  0  0  0
  127.6320  137.2110  156.3670 F   0  0  0  0  0  0  0  0  0  0  0  0
  127.5130  139.1290  155.2440 F   0  0  0  0  0  0  0  0  0  0  0  0
  135.6110  136.9460  146.6410 S   0  0  0  0  0  0  0  0  0  0  0  0
  135.4030  135.6580  145.9850 O   0  0  0  0  0  0  0  0  0  0  0  0
  137.0580  136.9490  146.8480 O   0  0  0  0  0  0  0  0  0  0  0  0
  135.0900  138.2580  145.6720 N   0  0  0  0  0  0  0  0  0  0  0  0
  134.4490  137.9950  144.3160 C   0  0  1  0  0  3  0  0  0  0  0  0
  134.3820  139.4520  146.3040 C   0  0  0  0  0  2  0  0  0  0  0  0
  132.9310  137.9290  144.3750 C   0  0  0  0  0  2  0  0  0  0  0  0
  132.8670  139.3330  146.3250 C   0  0  0  0  0  2  0  0  0  0  0  0
  132.3260  139.0860  145.0090 C   0  0  0  0  0  2  0  0  0  0  0  0
  134.8610  139.0820  143.3510 C   0  0  0  0  0  2  0  0  0  0  0  0
  136.3240  138.8670  142.9710 C   0  0  0  0  0  2  0  0  0  0  0  0
  136.8730  139.9800  142.7320 N   0  0  0  0  0  0  0  0  0  0  0  0
  136.8310  140.2360  141.3760 C   0  0  0  0  0  2  0  0  0  0  0  0
  136.2710  140.9830  143.4660 C   0  0  0  0  0  2  0  0  0  0  0  0
  137.4470  141.5940  141.0470 C   0  0  0  0  0  2  0  0  0  0  0  0
  136.8690  142.3520  143.1460 C   0  0  0  0  0  2  0  0  0  0  0  0
  136.8720  142.6120  141.7870 O   0  0  0  0  0  0  0  0  0  0  0  0
  1  2  1  0  0  0  0
  2  6  2  0  0  0  0
  3  4  1  0  0  0  0
  3  1  2  0  0  0  0
  4  5  2  0  0  0  0
  5  6  1  0  0  0  0
  6  7  1  0  0  0  0
  7 10  1  0  0  0  0
  7  8  1  0  0  0  0
  8 11  1  0  0  0  0
  9  8  2  0  0  0  0
 11 15  2  0  0  0  0
 11 12  1  0  0  0  0
 12 16  1  0  0  0  0
 12 13  1  0  0  0  0
 14 13  2  0  0  0  0
 14 17  1  0  0  0  0
 15 14  1  0  0  0  0
 17 19  1  0  0  0  0
 17 18  1  0  0  0  0
 20 17  1  0  0  0  0
 21 23  2  0  0  0  0
 21  3  1  0  0  0  0
 22 21  2  0  0  0  0
 24 26  1  0  0  0  0
 24 21  1  0  0  0  0
 25 30  1  6  0  0  0
 25 27  1  0  0  0  0
 25 24  1  0  0  0  0
 26 28  1  0  0  0  0
 27 29  1  0  0  0  0
 29 28  1  0  0  0  0
 31 30  1  0  0  0  0
 32 31  1  0  0  0  0
 32 34  1  0  0  0  0
 33 32  1  0  0  0  0
 35 33  1  0  0  0  0
 35 37  1  0  0  0  0
 36 34  1  0  0  0  0
 37 36  1  0  0  0  0
M  END
>  <MODEL>
7

>  <REMARK>
 VINA RESULT:    -8.689      5.695     11.850
 INTER + INTRA:         -13.971
 INTER:                 -12.752
 INTRA:                  -1.218
 UNBOUND:                -1.218
 SMILES Cn1nc(C(F)(F)F)cc1C(=O)Nc1ccc(S(=O)(=O)N2CCCC[C@H]2CCN2CCOCC2)cc1
 SMILES IDX 16 1 15 2 17 3 35 4 36 5 14 6 13 7 11 8 12 9 10 11 2 12 3 13
 SMILES IDX 4 14 9 15 1 16 5 17 6 18 7 19 8 20 18 21 19 22 20 23 21 24
 SMILES IDX 26 25 22 26 25 27 23 28 24 29 27 30 28 31 29 32 30 33 34 34
 SMILES IDX 31 35 33 36 32 37
 H PARENT 13 10

>  <TORSDO>
F 8

$$$$
<legacy-repo-root>/Stages/results/ERDRP_redocked.pdbqt
 OpenBabel02282618023D

 37 40  0  0  1  0  0  0  0  0999 V2000
  132.3620  139.1720  144.9100 C   0  0  0  0  0  3  0  0  0  0  0  0
  132.3930  138.6060  146.3240 C   0  0  0  0  0  3  0  0  0  0  0  0
  132.5240  140.6730  144.6950 C   0  0  0  0  0  0  0  0  0  0  0  0
  132.7120  141.6120  145.8760 C   0  0  0  0  0  3  0  0  0  0  0  0
  132.7440  141.0460  147.2890 C   0  0  0  0  0  3  0  0  0  0  0  0
  132.6030  139.5450  147.5080 C   0  0  0  0  0  0  0  0  0  0  0  0
  132.5980  139.0210  148.8540 N   0  0  0  0  0  0  0  0  0  0  0  0
  133.7150  139.0380  149.7750 C   0  0  0  0  0  0  0  0  0  0  0  0
  134.7710  139.4850  149.4850 O   0  0  0  0  0  0  0  0  0  0  0  0
  131.7600  138.6170  149.1750 H   0  0  0  0  0  0  0  0  0  0  0  0
  133.4110  138.4680  151.1550 C   0  0  0  0  0  0  0  0  0  0  0  0
  133.9860  137.4690  151.8140 N   0  0  0  0  0  0  0  0  0  0  0  0
  133.3500  137.3570  153.0440 N   0  0  0  0  0  0  0  0  0  0  0  0
  132.4070  138.2890  153.1080 C   0  0  0  0  0  0  0  0  0  0  0  0
  132.4360  138.9890  151.9470 C   0  0  0  0  0  3  0  0  0  0  0  0
  135.0750  136.6300  151.3540 C   0  0  0  0  0  1  0  0  0  0  0  0
  131.4470  138.5600  154.2600 C   0  0  0  0  0  0  0  0  0  0  0  0
  130.2960  139.1110  153.7800 F   0  0  0  0  0  0  0  0  0  0  0  0
  132.0240  139.4130  155.1540 F   0  0  0  0  0  0  0  0  0  0  0  0
  131.1590  137.3800  154.8790 F   0  0  0  0  0  0  0  0  0  0  0  0
  132.4760  141.3650  143.0250 S   0  0  0  0  0  0  0  0  0  0  0  0
  133.6590  141.0040  142.2490 O   0  0  0  0  0  0  0  0  0  0  0  0
  132.5810  142.8220  143.0750 O   0  0  0  0  0  0  0  0  0  0  0  0
  131.0270  140.8420  142.2790 N   0  0  0  0  0  0  0  0  0  0  0  0
  129.7300  141.6060  142.5170 C   0  0  1  0  0  3  0  0  0  0  0  0
  131.0310  140.3630  140.8310 C   0  0  0  0  0  2  0  0  0  0  0  0
  129.4520  142.6580  141.4550 C   0  0  0  0  0  2  0  0  0  0  0  0
  130.7360  141.4560  139.8160 C   0  0  0  0  0  2  0  0  0  0  0  0
  129.4940  142.1370  140.1010 C   0  0  0  0  0  2  0  0  0  0  0  0
  128.5780  140.6290  142.5640 C   0  0  0  0  0  2  0  0  0  0  0  0
  127.4800  141.2130  143.4490 C   0  0  0  0  0  2  0  0  0  0  0  0
  126.3490  141.0040  142.9230 N   0  0  0  0  0  0  0  0  0  0  0  0
  125.7360  142.2100  142.6460 C   0  0  0  0  0  2  0  0  0  0  0  0
  126.4790  140.2190  141.7940 C   0  0  0  0  0  2  0  0  0  0  0  0
  124.3830  142.0030  141.9690 C   0  0  0  0  0  2  0  0  0  0  0  0
  125.1360  140.0060  141.0980 C   0  0  0  0  0  2  0  0  0  0  0  0
  124.4870  141.2020  140.8460 O   0  0  0  0  0  0  0  0  0  0  0  0
  1  2  1  0  0  0  0
  2  6  2  0  0  0  0
  3  1  2  0  0  0  0
  3  4  1  0  0  0  0
  4  5  2  0  0  0  0
  5  6  1  0  0  0  0
  6  7  1  0  0  0  0
  7 10  1  0  0  0  0
  7  8  1  0  0  0  0
  8 11  1  0  0  0  0
  9  8  2  0  0  0  0
 11 12  1  0  0  0  0
 11 15  2  0  0  0  0
 12 13  1  0  0  0  0
 13 14  2  0  0  0  0
 14 17  1  0  0  0  0
 15 14  1  0  0  0  0
 16 12  1  0  0  0  0
 17 20  1  0  0  0  0
 17 19  1  0  0  0  0
 18 17  1  0  0  0  0
 21 23  2  0  0  0  0
 21  3  1  0  0  0  0
 22 21  2  0  0  0  0
 24 25  1  0  0  0  0
 24 21  1  0  0  0  0
 25 30  1  6  0  0  0
 26 24  1  0  0  0  0
 27 25  1  0  0  0  0
 28 29  1  0  0  0  0
 28 26  1  0  0  0  0
 29 27  1  0  0  0  0
 30 31  1  0  0  0  0
 32 31  1  0  0  0  0
 33 32  1  0  0  0  0
 34 32  1  0  0  0  0
 35 33  1  0  0  0  0
 36 34  1  0  0  0  0
 37 36  1  0  0  0  0
 37 35  1  0  0  0  0
M  END
>  <MODEL>
8

>  <REMARK>
 VINA RESULT:    -8.524      7.309     11.131
 INTER + INTRA:         -13.729
 INTER:                 -12.570
 INTRA:                  -1.159
 UNBOUND:                -1.218
 SMILES Cn1nc(C(F)(F)F)cc1C(=O)Nc1ccc(S(=O)(=O)N2CCCC[C@H]2CCN2CCOCC2)cc1
 SMILES IDX 16 1 15 2 17 3 35 4 36 5 14 6 13 7 11 8 12 9 10 11 2 12 3 13
 SMILES IDX 4 14 9 15 1 16 5 17 6 18 7 19 8 20 18 21 19 22 20 23 21 24
 SMILES IDX 26 25 22 26 25 27 23 28 24 29 27 30 28 31 29 32 30 33 34 34
 SMILES IDX 31 35 33 36 32 37
 H PARENT 13 10

>  <TORSDO>
F 8

$$$$
<legacy-repo-root>/Stages/results/ERDRP_redocked.pdbqt
 OpenBabel02282618023D

 37 40  0  0  1  0  0  0  0  0999 V2000
  135.4240  136.7420  150.8590 C   0  0  0  0  0  3  0  0  0  0  0  0
  136.1660  137.3410  149.6710 C   0  0  0  0  0  3  0  0  0  0  0  0
  133.9180  136.5150  150.7710 C   0  0  0  0  0  0  0  0  0  0  0  0
  133.1490  136.8830  149.5120 C   0  0  0  0  0  3  0  0  0  0  0  0
  133.8910  137.4810  148.3250 C   0  0  0  0  0  3  0  0  0  0  0  0
  135.3980  137.6910  148.4000 C   0  0  0  0  0  0  0  0  0  0  0  0
  136.0880  138.2930  147.2830 N   0  0  0  0  0  0  0  0  0  0  0  0
  136.6160  137.5890  146.1330 C   0  0  0  0  0  0  0  0  0  0  0  0
  136.5370  136.4150  146.0160 O   0  0  0  0  0  0  0  0  0  0  0  0
  136.2100  139.2690  147.3050 H   0  0  0  0  0  0  0  0  0  0  0  0
  137.2460  138.4830  145.0730 C   0  0  0  0  0  0  0  0  0  0  0  0
  138.4650  138.4580  144.5460 N   0  0  0  0  0  0  0  0  0  0  0  0
  138.5360  139.4770  143.6050 N   0  0  0  0  0  0  0  0  0  0  0  0
  137.3630  140.0970  143.5780 C   0  0  0  0  0  0  0  0  0  0  0  0
  136.5510  139.4900  144.4780 C   0  0  0  0  0  3  0  0  0  0  0  0
  139.5430  137.5470  144.8790 C   0  0  0  0  0  1  0  0  0  0  0  0
  136.9580  141.2800  142.7050 C   0  0  0  0  0  0  0  0  0  0  0  0
  138.0200  142.1200  142.5480 F   0  0  0  0  0  0  0  0  0  0  0  0
  135.9240  141.9520  143.2850 F   0  0  0  0  0  0  0  0  0  0  0  0
  136.5690  140.8120  141.4850 F   0  0  0  0  0  0  0  0  0  0  0  0
  133.0180  135.8170  152.1750 S   0  0  0  0  0  0  0  0  0  0  0  0
  133.9020  135.1100  153.0960 O   0  0  0  0  0  0  0  0  0  0  0  0
  132.1300  134.7450  151.7270 O   0  0  0  0  0  0  0  0  0  0  0  0
  132.1670  137.0900  152.9400 N   0  0  0  0  0  0  0  0  0  0  0  0
  132.0500  137.1230  154.4580 C   0  0  1  0  0  3  0  0  0  0  0  0
  132.3170  138.5260  152.4480 C   0  0  0  0  0  2  0  0  0  0  0  0
  133.1350  137.9560  155.1230 C   0  0  0  0  0  2  0  0  0  0  0  0
  133.4090  139.3120  153.1560 C   0  0  0  0  0  2  0  0  0  0  0  0
  133.2370  139.3030  154.5910 C   0  0  0  0  0  2  0  0  0  0  0  0
  130.6960  137.6720  154.8430 C   0  0  0  0  0  2  0  0  0  0  0  0
  129.6180  136.7720  154.2450 C   0  0  0  0  0  2  0  0  0  0  0  0
  128.7770  136.4620  155.1360 N   0  0  0  0  0  0  0  0  0  0  0  0
  128.2730  137.6080  155.7180 C   0  0  0  0  0  2  0  0  0  0  0  0
  127.7770  135.6710  154.6020 C   0  0  0  0  0  2  0  0  0  0  0  0
  127.2190  137.2790  156.7730 C   0  0  0  0  0  2  0  0  0  0  0  0
  126.7080  135.3370  155.6410 C   0  0  0  0  0  2  0  0  0  0  0  0
  126.2180  136.4710  156.2650 O   0  0  0  0  0  0  0  0  0  0  0  0
  2  1  2  0  0  0  0
  3  1  1  0  0  0  0
  3 21  1  0  0  0  0
  4  3  2  0  0  0  0
  5  6  2  0  0  0  0
  5  4  1  0  0  0  0
  6  2  1  0  0  0  0
  7 10  1  0  0  0  0
  7  6  1  0  0  0  0
  8  7  1  0  0  0  0
  9  8  2  0  0  0  0
 11  8  1  0  0  0  0
 12 16  1  0  0  0  0
 12 11  1  0  0  0  0
 13 12  1  0  0  0  0
 14 13  2  0  0  0  0
 14 15  1  0  0  0  0
 15 11  2  0  0  0  0
 17 19  1  0  0  0  0
 17 14  1  0  0  0  0
 18 17  1  0  0  0  0
 20 17  1  0  0  0  0
 21 24  1  0  0  0  0
 21 22  2  0  0  0  0
 23 21  2  0  0  0  0
 24 25  1  0  0  0  0
 25 30  1  6  0  0  0
 25 27  1  0  0  0  0
 26 24  1  0  0  0  0
 26 28  1  0  0  0  0
 28 29  1  0  0  0  0
 29 27  1  0  0  0  0
 31 30  1  0  0  0  0
 31 32  1  0  0  0  0
 32 33  1  0  0  0  0
 33 35  1  0  0  0  0
 34 32  1  0  0  0  0
 34 36  1  0  0  0  0
 36 37  1  0  0  0  0
 37 35  1  0  0  0  0
M  END
>  <MODEL>
9

>  <REMARK>
 VINA RESULT:    -8.516      1.623      2.175
 INTER + INTRA:         -13.716
 INTER:                 -12.538
 INTRA:                  -1.178
 UNBOUND:                -1.218
 SMILES Cn1nc(C(F)(F)F)cc1C(=O)Nc1ccc(S(=O)(=O)N2CCCC[C@H]2CCN2CCOCC2)cc1
 SMILES IDX 16 1 15 2 17 3 35 4 36 5 14 6 13 7 11 8 12 9 10 11 2 12 3 13
 SMILES IDX 4 14 9 15 1 16 5 17 6 18 7 19 8 20 18 21 19 22 20 23 21 24
 SMILES IDX 26 25 22 26 25 27 23 28 24 29 27 30 28 31 29 32 30 33 34 34
 SMILES IDX 31 35 33 36 32 37
 H PARENT 13 10

>  <TORSDO>
F 8

$$$$
