
     RDKit          2D

 36 39  0  0  0  0  0  0  0  0999 V2000
   -6.1399  -10.4636    0.0000 N   0  0  0  0  0  0  0  0  0  0  0  0
    1.5000    0.0000    0.0000 C   0  0  0  0  0  0  0  0  0  0  0  0
    0.7500    1.2990    0.0000 C   0  0  0  0  0  0  0  0  0  0  0  0
    0.7500   -3.8971    0.0000 C   0  0  0  0  0  0  0  0  0  0  0  0
    3.0000   -5.1962    0.0000 C   0  0  0  0  0  0  0  0  0  0  0  0
    0.7500   -6.4952    0.0000 C   0  0  0  0  0  0  0  0  0  0  0  0
    3.7500   -6.4952    0.0000 C   0  0  0  0  0  0  0  0  0  0  0  0
   -3.7500   -3.8971    0.0000 C   0  0  0  0  0  0  0  0  0  0  0  0
   -4.5000   -5.1962    0.0000 C   0  0  0  0  0  0  0  0  0  0  0  0
    0.7500   -1.2990    0.0000 C   0  0  0  0  0  0  0  0  0  0  0  0
    1.5000   -2.5981    0.0000 C   0  0  0  0  0  0  0  0  0  0  0  0
   -1.5000    0.0000    0.0000 C   0  0  0  0  0  0  0  0  0  0  0  0
   -0.7500    1.2990    0.0000 C   0  0  0  0  0  0  0  0  0  0  0  0
   -2.2500   -3.8971    0.0000 C   0  0  0  0  0  0  0  0  0  0  0  0
    1.5000   -7.7942    0.0000 C   0  0  0  0  0  0  0  0  0  0  0  0
   -1.5000   -5.1962    0.0000 C   0  0  0  0  0  0  0  0  0  0  0  0
   -2.2500   -6.4952    0.0000 C   0  0  0  0  0  0  0  0  0  0  0  0
   -3.7500   -6.4952    0.0000 C   0  0  0  0  0  0  0  0  0  0  0  0
   -6.0000   -7.7942    0.0000 C   0  0  0  0  0  0  0  0  0  0  0  0
   -6.7500   -9.0933    0.0000 C   0  0  0  0  0  0  0  0  0  0  0  0
   -8.2418   -9.2501    0.0000 C   0  0  0  0  0  0  0  0  0  0  0  0
   -8.5537  -10.7173    0.0000 C   0  0  0  0  0  0  0  0  0  0  0  0
   -4.6727  -10.7755    0.0000 C   0  0  0  0  0  0  0  0  0  0  0  0
   -9.9240  -11.3274    0.0000 C   0  0  0  0  0  0  0  0  0  0  0  0
  -11.2943  -11.9375    0.0000 F   0  0  0  0  0  0  0  0  0  0  0  0
  -10.5341   -9.9571    0.0000 F   0  0  0  0  0  0  0  0  0  0  0  0
   -9.3139  -12.6977    0.0000 F   0  0  0  0  0  0  0  0  0  0  0  0
   -0.7500   -1.2990    0.0000 N   0  0  0  0  0  0  0  0  0  0  0  0
    1.5000   -5.1962    0.0000 N   0  0  0  0  0  0  0  0  0  0  0  0
   -4.5000   -7.7942    0.0000 N   0  0  0  0  0  0  0  0  0  0  0  0
   -7.2546  -11.4673    0.0000 N   0  0  0  0  0  0  0  0  0  0  0  0
   -0.2010   -3.3481    0.0000 O   0  0  0  0  0  0  0  0  0  0  0  0
   -2.7990   -1.8481    0.0000 O   0  0  0  0  0  0  0  0  0  0  0  0
    3.0000   -7.7942    0.0000 O   0  0  0  0  0  0  0  0  0  0  0  0
   -6.7500   -6.4952    0.0000 O   0  0  0  0  0  0  0  0  0  0  0  0
   -1.5000   -2.5981    0.0000 S   0  0  0  0  0  0  0  0  0  0  0  0
 34 15  1  0
 34  7  1  0
 15  6  1  0
  7  5  1  0
  6 29  1  0
  5 29  1  0
 29  4  1  0
  4 11  1  0
 11 10  1  0
 10  2  1  0
 10 28  1  0
  3  2  1  0
  3 13  1  0
 12 13  1  0
 12 28  1  0
 28 36  1  0
 33 36  2  0
 36 32  2  0
 36 14  1  0
 14  8  2  0
 14 16  1  0
  8  9  1  0
 16 17  2  0
  9 18  2  0
 17 18  1  0
 18 30  1  0
 30 19  1  0
 25 24  1  0
 21 20  2  0
 21 22  1  0
 19 35  2  0
 19 20  1  0
 27 24  1  0
 24 22  1  0
 24 26  1  0
 20  1  1  0
 22 31  2  0
  1 31  1  0
  1 23  1  0
M  END
