
     RDKit          3D

 66 69  0  0  0  0  0  0  0  0999 V2000
  135.7630  136.9270  150.7950 C   0  0  0  0  0  0  0  0  0  0  0  0
  136.4350  137.5830  149.5950 C   0  0  0  0  0  0  0  0  0  0  0  0
  134.3590  136.3500  150.6510 C   0  0  0  0  0  0  0  0  0  0  0  0
  133.6200  136.4250  149.3230 C   0  0  0  0  0  0  0  0  0  0  0  0
  134.2920  137.0800  148.1250 C   0  0  0  0  0  0  0  0  0  0  0  0
  135.7030  137.6400  148.2580 C   0  0  0  0  0  0  0  0  0  0  0  0
  136.3180  138.2920  147.1250 N   0  0  0  0  0  0  0  0  0  0  0  0
  136.8850  137.6280  145.9700 C   0  0  0  0  0  0  0  0  0  0  0  0
  136.9070  136.4510  145.8600 O   0  0  0  0  0  0  0  0  0  0  0  0
  137.4170  138.5670  144.8940 C   0  0  0  0  0  0  0  0  0  0  0  0
  138.6110  138.6160  144.3150 N   0  0  0  0  0  0  0  0  0  0  0  0
  138.5830  139.6470  143.3840 N   0  0  0  0  0  0  0  0  0  0  0  0
  137.3760  140.1990  143.4140 C   0  0  0  0  0  0  0  0  0  0  0  0
  136.6410  139.5370  144.3410 C   0  0  0  0  0  0  0  0  0  0  0  0
  139.7520  137.7660  144.5910 C   0  0  0  0  0  0  0  0  0  0  0  0
  136.8670  141.3640  142.5730 C   0  0  0  0  0  0  0  0  0  0  0  0
  137.8210  141.7320  141.6720 F   0  0  0  0  0  0  0  0  0  0  0  0
  136.5670  142.4210  143.3790 F   0  0  0  0  0  0  0  0  0  0  0  0
  135.7460  140.9670  141.9070 F   0  0  0  0  0  0  0  0  0  0  0  0
  133.5400  135.5790  152.0660 S   0  0  0  0  0  0  0  0  0  0  0  0
  134.4970  135.0930  153.0550 O   0  0  0  0  0  0  0  0  0  0  0  0
  132.8740  134.3440  151.6580 O   0  0  0  0  0  0  0  0  0  0  0  0
  132.4470  136.7190  152.7270 N   0  0  0  0  0  0  0  0  0  0  0  0
  131.8320  136.4780  154.1000 C   0  0  0  0  0  0  0  0  0  0  0  0
  132.7120  138.2150  152.5880 C   0  0  0  0  0  0  0  0  0  0  0  0
  132.6100  137.1350  155.2280 C   0  0  0  0  0  0  0  0  0  0  0  0
  133.4830  138.8190  153.7500 C   0  0  0  0  0  0  0  0  0  0  0  0
  132.8450  138.5520  155.0190 C   0  0  0  0  0  0  0  0  0  0  0  0
  130.4120  136.9940  154.1080 C   0  0  0  0  0  0  0  0  0  0  0  0
  129.4600  135.8020  154.1460 C   0  0  0  0  0  0  0  0  0  0  0  0
  128.2650  136.2090  154.2140 N   0  0  0  0  0  0  0  0  0  0  0  0
  127.5480  135.4020  155.0750 C   0  0  0  0  0  0  0  0  0  0  0  0
  128.2280  137.5360  154.5970 C   0  0  0  0  0  0  0  0  0  0  0  0
  126.1070  135.8860  155.2200 C   0  0  0  0  0  0  0  0  0  0  0  0
  126.7940  138.0360  154.7550 C   0  0  0  0  0  0  0  0  0  0  0  0
  126.0470  137.2190  155.5840 O   0  0  0  0  0  0  0  0  0  0  0  0
  136.2880  136.8700  151.7600 H   0  0  0  0  0  0  0  0  0  0  0  0
  137.4427  138.0132  149.6924 H   0  0  0  0  0  0  0  0  0  0  0  0
  132.6063  136.0083  149.2295 H   0  0  0  0  0  0  0  0  0  0  0  0
  133.7601  137.1491  147.1646 H   0  0  0  0  0  0  0  0  0  0  0  0
  136.3566  139.3212  147.1402 H   0  0  0  0  0  0  0  0  0  0  0  0
  135.5936  139.7488  144.6018 H   0  0  0  0  0  0  0  0  0  0  0  0
  139.8823  137.6689  145.6789 H   0  0  0  0  0  0  0  0  0  0  0  0
  139.5833  136.7717  144.1518 H   0  0  0  0  0  0  0  0  0  0  0  0
  140.6564  138.2122  144.1518 H   0  0  0  0  0  0  0  0  0  0  0  0
  131.8602  135.3930  154.2788 H   0  0  0  0  0  0  0  0  0  0  0  0
  133.2905  138.3793  151.6669 H   0  0  0  0  0  0  0  0  0  0  0  0
  131.7302  138.7105  152.5670 H   0  0  0  0  0  0  0  0  0  0  0  0
  132.0422  137.0100  156.1618 H   0  0  0  0  0  0  0  0  0  0  0  0
  133.5944  136.6460  155.2705 H   0  0  0  0  0  0  0  0  0  0  0  0
  134.4963  138.3912  153.7648 H   0  0  0  0  0  0  0  0  0  0  0  0
  133.5140  139.9093  153.6076 H   0  0  0  0  0  0  0  0  0  0  0  0
  133.4917  138.9265  155.8262 H   0  0  0  0  0  0  0  0  0  0  0  0
  131.8690  139.0595  155.0193 H   0  0  0  0  0  0  0  0  0  0  0  0
  130.2519  137.6243  154.9952 H   0  0  0  0  0  0  0  0  0  0  0  0
  130.2257  137.5945  153.2054 H   0  0  0  0  0  0  0  0  0  0  0  0
  129.5898  135.2020  153.2332 H   0  0  0  0  0  0  0  0  0  0  0  0
  129.6844  135.1867  155.0298 H   0  0  0  0  0  0  0  0  0  0  0  0
  127.5429  134.3746  154.6821 H   0  0  0  0  0  0  0  0  0  0  0  0
  128.0273  135.4385  156.0644 H   0  0  0  0  0  0  0  0  0  0  0  0
  128.7519  137.6448  155.5581 H   0  0  0  0  0  0  0  0  0  0  0  0
  128.7163  138.1339  153.8133 H   0  0  0  0  0  0  0  0  0  0  0  0
  125.5892  135.7559  154.2582 H   0  0  0  0  0  0  0  0  0  0  0  0
  125.6253  135.2934  156.0117 H   0  0  0  0  0  0  0  0  0  0  0  0
  126.8167  139.0494  155.1822 H   0  0  0  0  0  0  0  0  0  0  0  0
  126.3224  138.0326  153.7612 H   0  0  0  0  0  0  0  0  0  0  0  0
  2  1  2  0
  3  1  1  0
  4  3  2  0
  5  4  1  0
  6  5  2  0
  6  2  1  0
  7  6  1  0
  8  7  1  0
  9  8  2  0
 10  8  1  0
 11 10  1  0
 12 11  1  0
 13 12  2  0
 14 13  1  0
 14 10  2  0
 15 11  1  0
 16 13  1  0
 17 16  1  0
 18 16  1  0
 19 16  1  0
 20  3  1  0
 21 20  2  0
 22 20  2  0
 23 20  1  0
 24 23  1  0
 25 23  1  0
 26 24  1  0
 27 25  1  0
 28 27  1  0
 28 26  1  0
 29 24  1  0
 30 29  1  0
 31 30  1  0
 32 31  1  0
 33 31  1  0
 34 32  1  0
 35 33  1  0
 36 34  1  0
 36 35  1  0
  1 37  1  0
  2 38  1  0
  4 39  1  0
  5 40  1  0
  7 41  1  0
 14 42  1  0
 15 43  1  0
 15 44  1  0
 15 45  1  0
 24 46  1  0
 25 47  1  0
 25 48  1  0
 26 49  1  0
 26 50  1  0
 27 51  1  0
 27 52  1  0
 28 53  1  0
 28 54  1  0
 29 55  1  0
 29 56  1  0
 30 57  1  0
 30 58  1  0
 32 59  1  0
 32 60  1  0
 33 61  1  0
 33 62  1  0
 34 63  1  0
 34 64  1  0
 35 65  1  0
 35 66  1  0
M  END
$$$$
