
     RDKit          3D

 53 56  0  0  0  0  0  0  0  0999 V2000
  134.9840  137.1610  151.4090 C   0  0  0  0  0  0  0  0  0  0  0  0
  134.8710  135.6620  151.2300 C   0  0  0  0  0  0  0  0  0  0  0  0
  133.7080  137.8130  151.8590 C   0  0  0  0  0  0  0  0  0  0  0  0
  133.9320  139.0010  152.7100 C   0  0  0  0  0  0  0  0  0  0  0  0
  132.7460  136.7760  152.3840 C   0  0  0  0  0  0  0  0  0  0  0  0
  133.9570  138.7550  154.2070 C   0  0  0  0  0  0  0  0  0  0  0  0
  132.9550  136.5530  153.9000 C   0  0  0  0  0  0  0  0  0  0  0  0
  132.8150  137.8660  154.5480 C   0  0  0  0  0  0  0  0  0  0  0  0
  132.1980  137.9710  155.8690 C   0  0  0  0  0  0  0  0  0  0  0  0
  132.9000  137.8850  157.0770 C   0  0  0  0  0  0  0  0  0  0  0  0
  130.8230  138.1940  156.0350 C   0  0  0  0  0  0  0  0  0  0  0  0
  132.2980  138.0090  158.3060 C   0  0  0  0  0  0  0  0  0  0  0  0
  129.9680  138.2970  154.9600 C   0  0  0  0  0  0  0  0  0  0  0  0
  130.2500  138.3150  157.2880 C   0  0  0  0  0  0  0  0  0  0  0  0
  130.9750  138.2240  158.4180 N   0  0  0  0  0  0  0  0  0  0  0  0
  128.6280  138.5070  155.0720 C   0  0  0  0  0  0  0  0  0  0  0  0
  128.8920  138.5280  157.4390 C   0  0  0  0  0  0  0  0  0  0  0  0
  128.0680  138.6260  156.3280 C   0  0  0  0  0  0  0  0  0  0  0  0
  127.8390  138.6000  153.9760 F   0  0  0  0  0  0  0  0  0  0  0  0
  135.5340  137.7190  150.1580 C   0  0  0  0  0  0  0  0  0  0  0  0
  136.2960  138.7130  150.2090 O   0  0  0  0  0  0  0  0  0  0  0  0
  135.1940  137.1240  148.9180 N   0  0  0  0  0  0  0  0  0  0  0  0
  135.6230  137.5240  147.6540 C   0  0  0  0  0  0  0  0  0  0  0  0
  136.7540  137.1150  147.0000 C   0  0  0  0  0  0  0  0  0  0  0  0
  134.8310  138.4450  146.9510 C   0  0  0  0  0  0  0  0  0  0  0  0
  137.0990  137.5780  145.7250 C   0  0  0  0  0  0  0  0  0  0  0  0
  135.1600  138.9020  145.7070 C   0  0  0  0  0  0  0  0  0  0  0  0
  136.3050  138.4770  145.0660 C   0  0  0  0  0  0  0  0  0  0  0  0
  136.6790  139.0860  143.4860 Cl  0  0  0  0  0  0  0  0  0  0  0  0
  135.6712  137.3828  152.2388 H   0  0  0  0  0  0  0  0  0  0  0  0
  134.8344  135.1767  152.2165 H   0  0  0  0  0  0  0  0  0  0  0  0
  133.9526  135.4276  150.6717 H   0  0  0  0  0  0  0  0  0  0  0  0
  135.7438  135.2926  150.6717 H   0  0  0  0  0  0  0  0  0  0  0  0
  133.2012  138.2562  150.9891 H   0  0  0  0  0  0  0  0  0  0  0  0
  134.8994  139.4405  152.4255 H   0  0  0  0  0  0  0  0  0  0  0  0
  133.0678  139.6582  152.5331 H   0  0  0  0  0  0  0  0  0  0  0  0
  131.7154  137.1179  152.2082 H   0  0  0  0  0  0  0  0  0  0  0  0
  132.9285  135.8268  151.8588 H   0  0  0  0  0  0  0  0  0  0  0  0
  134.9036  138.2711  154.4896 H   0  0  0  0  0  0  0  0  0  0  0  0
  133.8744  139.7074  154.7512 H   0  0  0  0  0  0  0  0  0  0  0  0
  132.1969  135.8568  154.2880 H   0  0  0  0  0  0  0  0  0  0  0  0
  133.9451  136.1180  154.1013 H   0  0  0  0  0  0  0  0  0  0  0  0
  131.9275  138.3145  154.0776 H   0  0  0  0  0  0  0  0  0  0  0  0
  133.9854  137.7098  157.0407 H   0  0  0  0  0  0  0  0  0  0  0  0
  132.9103  137.9309  159.2165 H   0  0  0  0  0  0  0  0  0  0  0  0
  130.3939  138.2039  153.9501 H   0  0  0  0  0  0  0  0  0  0  0  0
  128.4624  138.6203  158.4474 H   0  0  0  0  0  0  0  0  0  0  0  0
  126.9875  138.7955  156.4455 H   0  0  0  0  0  0  0  0  0  0  0  0
  134.5635  136.3103  148.9547 H   0  0  0  0  0  0  0  0  0  0  0  0
  137.4188  136.3930  147.4968 H   0  0  0  0  0  0  0  0  0  0  0  0
  133.9075  138.8138  147.4213 H   0  0  0  0  0  0  0  0  0  0  0  0
  138.0203  137.2146  145.2464 H   0  0  0  0  0  0  0  0  0  0  0  0
  134.4984  139.6238  145.2058 H   0  0  0  0  0  0  0  0  0  0  0  0
  2  1  1  0
  3  1  1  0
  4  3  1  0
  5  3  1  0
  6  4  1  0
  7  5  1  0
  8  7  1  0
  8  6  1  0
  9  8  1  0
 10  9  2  0
 11  9  1  0
 12 10  1  0
 13 11  2  0
 14 11  1  0
 15 14  1  0
 15 12  2  0
 16 13  1  0
 17 14  2  0
 18 17  1  0
 18 16  2  0
 19 16  1  0
 20  1  1  0
 21 20  2  0
 22 20  1  0
 23 22  1  0
 24 23  2  0
 25 23  1  0
 26 24  1  0
 27 25  2  0
 28 27  1  0
 28 26  2  0
 29 28  1  0
  1 30  1  0
  2 31  1  0
  2 32  1  0
  2 33  1  0
  3 34  1  0
  4 35  1  0
  4 36  1  0
  5 37  1  0
  5 38  1  0
  6 39  1  0
  6 40  1  0
  7 41  1  0
  7 42  1  0
  8 43  1  0
 10 44  1  0
 12 45  1  0
 13 46  1  0
 17 47  1  0
 18 48  1  0
 22 49  1  0
 24 50  1  0
 25 51  1  0
 26 52  1  0
 27 53  1  0
M  END
$$$$
