<legacy-repo-root>/Stages/data/ERDRP_fixed.pdb
 OpenBabel03012621173D

 66 69  0  0  1  0  0  0  0  0999 V2000
  129.9420  138.0030  157.1240 N   0  0  0  0  0  0  0  0  0  0  0  0
  133.9460  136.7490  147.1080 C   0  0  0  0  0  0  0  0  0  0  0  0
  132.8880  137.7400  147.0350 C   0  0  0  0  0  0  0  0  0  0  0  0
  136.4440  136.9170  144.8860 C   0  0  0  0  0  0  0  0  0  0  0  0
  138.4190  136.5200  144.0990 C   0  0  0  0  0  0  0  0  0  0  0  0
  137.2570  138.4080  143.5280 C   0  0  0  0  0  0  0  0  0  0  0  0
  139.7140  137.1570  143.6010 C   0  0  0  0  0  0  0  0  0  0  0  0
  134.1250  136.5930  150.8960 C   0  0  0  0  0  0  0  0  0  0  0  0
  132.9870  136.4730  151.9020 C   0  0  0  0  0  0  0  0  0  0  0  0
  135.3420  137.3490  147.0500 C   0  0  1  0  0  0  0  0  0  0  0  0
  135.5860  137.9080  145.6680 C   0  0  0  0  0  0  0  0  0  0  0  0
  134.4010  139.4260  147.9880 C   0  0  0  0  0  0  0  0  0  0  0  0
  133.0320  138.7680  148.0400 C   0  0  0  0  0  0  0  0  0  0  0  0
  134.9100  137.8970  150.7980 C   0  0  0  0  0  0  0  0  0  0  0  0
  138.5420  139.0520  143.0110 C   0  0  0  0  0  0  0  0  0  0  0  0
  134.5670  139.0800  151.6900 C   0  0  0  0  0  0  0  0  0  0  0  0
  133.4300  138.9590  152.6950 C   0  0  0  0  0  0  0  0  0  0  0  0
  132.6560  137.6520  152.8110 C   0  0  0  0  0  0  0  0  0  0  0  0
  131.5350  138.0930  155.0880 C   0  0  0  0  0  0  0  0  0  0  0  0
  130.2180  137.9010  155.8290 C   0  0  0  0  0  0  0  0  0  0  0  0
  129.0650  137.5960  155.1760 C   0  0  0  0  0  0  0  0  0  0  0  0
  128.0670  137.5000  156.0890 C   0  0  0  0  0  0  0  0  0  0  0  0
  130.8690  138.3160  158.1940 C   0  0  0  0  0  0  0  0  0  0  0  0
  126.6170  137.1670  155.7570 C   0  0  0  0  0  0  0  0  0  0  0  0
  125.8280  138.2500  156.0060 F   0  0  0  0  0  0  0  0  0  0  0  0
  126.1990  136.1130  156.5130 F   0  0  0  0  0  0  0  0  0  0  0  0
  126.5330  136.8410  154.4360 F   0  0  0  0  0  0  0  0  0  0  0  0
  135.5660  138.4460  148.0830 N   0  0  0  0  0  0  0  0  0  0  0  0
  137.5150  137.4770  144.5150 N   0  0  0  0  0  0  0  0  0  0  0  0
  131.5550  137.5590  153.7420 N   0  0  0  0  0  0  0  0  0  0  0  0
  128.5860  137.7480  157.2850 N   0  0  0  0  0  0  0  0  0  0  0  0
  137.0890  136.8660  149.5450 O   0  0  0  0  0  0  0  0  0  0  0  0
  137.2110  139.0750  150.0490 O   0  0  0  0  0  0  0  0  0  0  0  0
  139.4770  138.1080  142.6250 O   0  0  0  0  0  0  0  0  0  0  0  0
  132.4600  138.6580  155.5610 O   0  0  0  0  0  0  0  0  0  0  0  0
  136.2560  138.0630  149.6020 S   0  0  0  0  0  0  0  0  0  0  0  0
  133.8336  136.0721  146.2870 H   0  0  0  0  0  0  0  0  0  0  0  0
  133.8530  136.2575  148.0539 H   0  0  0  0  0  0  0  0  0  0  0  0
  131.9471  137.2503  147.1755 H   0  0  0  0  0  0  0  0  0  0  0  0
  132.9436  138.2094  146.0751 H   0  0  0  0  0  0  0  0  0  0  0  0
  136.6785  136.0803  145.5104 H   0  0  0  0  0  0  0  0  0  0  0  0
  135.9030  136.5841  144.0250 H   0  0  0  0  0  0  0  0  0  0  0  0
  138.6431  135.8721  144.9206 H   0  0  0  0  0  0  0  0  0  0  0  0
  137.9811  135.9712  143.2915 H   0  0  0  0  0  0  0  0  0  0  0  0
  136.7604  137.9223  142.7141 H   0  0  0  0  0  0  0  0  0  0  0  0
  136.6427  139.1775  143.9468 H   0  0  0  0  0  0  0  0  0  0  0  0
  140.2099  137.6239  144.4262 H   0  0  0  0  0  0  0  0  0  0  0  0
  140.3207  136.3862  143.1736 H   0  0  0  0  0  0  0  0  0  0  0  0
  134.3633  135.7966  150.2845 H   0  0  0  0  0  0  0  0  0  0  0  0
  132.4430  135.5985  151.9679 H   0  0  0  0  0  0  0  0  0  0  0  0
  136.0315  136.5622  147.2747 H   0  0  0  0  0  0  0  0  0  0  0  0
  134.6515  138.0499  145.1664 H   0  0  0  0  0  0  0  0  0  0  0  0
  136.0883  138.8502  145.7384 H   0  0  0  0  0  0  0  0  0  0  0  0
  134.4740  140.1151  148.8033 H   0  0  0  0  0  0  0  0  0  0  0  0
  134.4774  139.9052  147.0344 H   0  0  0  0  0  0  0  0  0  0  0  0
  132.8963  138.3283  149.0060 H   0  0  0  0  0  0  0  0  0  0  0  0
  132.2956  139.5209  147.8510 H   0  0  0  0  0  0  0  0  0  0  0  0
  138.3049  139.6677  142.1686 H   0  0  0  0  0  0  0  0  0  0  0  0
  138.9649  139.6295  143.8063 H   0  0  0  0  0  0  0  0  0  0  0  0
  135.1018  139.9594  151.6145 H   0  0  0  0  0  0  0  0  0  0  0  0
  133.1840  139.7607  153.2965 H   0  0  0  0  0  0  0  0  0  0  0  0
  128.9661  137.4605  154.1577 H   0  0  0  0  0  0  0  0  0  0  0  0
  131.8469  138.4656  157.7863 H   0  0  0  0  0  0  0  0  0  0  0  0
  130.8940  137.5059  158.8926 H   0  0  0  0  0  0  0  0  0  0  0  0
  130.5503  139.2074  158.6927 H   0  0  0  0  0  0  0  0  0  0  0  0
  130.7458  137.0906  153.4337 H   0  0  0  0  0  0  0  0  0  0  0  0
  1 31  1  0  0  0  0
  1 23  1  0  0  0  0
  2 37  1  0  0  0  0
  2 38  1  0  0  0  0
  3  2  1  0  0  0  0
  3 13  1  0  0  0  0
  3 39  1  0  0  0  0
  3 40  1  0  0  0  0
  4 11  1  0  0  0  0
  4 41  1  0  0  0  0
  4 42  1  0  0  0  0
  5 29  1  0  0  0  0
  5 43  1  0  0  0  0
  5 44  1  0  0  0  0
  6 29  1  0  0  0  0
  6 45  1  0  0  0  0
  6 46  1  0  0  0  0
  7  5  1  0  0  0  0
  7 47  1  0  0  0  0
  7 48  1  0  0  0  0
  8  9  1  0  0  0  0
  8 49  1  0  0  0  0
  9 18  2  0  0  0  0
  9 50  1  0  0  0  0
 10  2  1  0  0  0  0
 10 28  1  0  0  0  0
 10 51  1  1  0  0  0
 11 10  1  0  0  0  0
 11 52  1  0  0  0  0
 11 53  1  0  0  0  0
 12 13  1  0  0  0  0
 12 28  1  0  0  0  0
 12 54  1  0  0  0  0
 12 55  1  0  0  0  0
 13 56  1  0  0  0  0
 13 57  1  0  0  0  0
 14  8  2  0  0  0  0
 14 16  1  0  0  0  0
 15  6  1  0  0  0  0
 15 58  1  0  0  0  0
 15 59  1  0  0  0  0
 16 17  2  0  0  0  0
 16 60  1  0  0  0  0
 17 18  1  0  0  0  0
 17 61  1  0  0  0  0
 18 30  1  0  0  0  0
 19 35  2  0  0  0  0
 19 20  1  0  0  0  0
 20  1  1  0  0  0  0
 21 20  2  0  0  0  0
 21 22  1  0  0  0  0
 21 62  1  0  0  0  0
 22 31  2  0  0  0  0
 23 63  1  0  0  0  0
 23 64  1  0  0  0  0
 23 65  1  0  0  0  0
 24 25  1  0  0  0  0
 24 22  1  0  0  0  0
 24 26  1  0  0  0  0
 27 24  1  0  0  0  0
 28 36  1  0  0  0  0
 29  4  1  0  0  0  0
 30 19  1  0  0  0  0
 30 66  1  0  0  0  0
 32 36  2  0  0  0  0
 34 15  1  0  0  0  0
 34  7  1  0  0  0  0
 36 33  2  0  0  0  0
 36 14  1  0  0  0  0
M  END
$$$$
