
     RDKit          3D

 53 56  0  0  0  0  0  0  0  0999 V2000
  134.4760  137.1740  151.7340 C   0  0  0  0  0  0  0  0  0  0  0  0
  134.9130  135.7250  151.7680 C   0  0  0  0  0  0  0  0  0  0  0  0
  132.9940  137.3620  151.9050 C   0  0  0  0  0  0  0  0  0  0  0  0
  132.6310  138.7180  152.3700 C   0  0  0  0  0  0  0  0  0  0  0  0
  132.4040  136.2030  152.6700 C   0  0  0  0  0  0  0  0  0  0  0  0
  132.5020  138.8970  153.8710 C   0  0  0  0  0  0  0  0  0  0  0  0
  132.4320  136.4800  154.1910 C   0  0  0  0  0  0  0  0  0  0  0  0
  131.7230  137.7500  154.4060 C   0  0  0  0  0  0  0  0  0  0  0  0
  130.9050  137.9390  155.6040 C   0  0  0  0  0  0  0  0  0  0  0  0
  131.4160  138.2800  156.8610 C   0  0  0  0  0  0  0  0  0  0  0  0
  129.5080  137.8160  155.5810 C   0  0  0  0  0  0  0  0  0  0  0  0
  130.6220  138.4740  157.9670 C   0  0  0  0  0  0  0  0  0  0  0  0
  128.8270  137.4780  154.4330 C   0  0  0  0  0  0  0  0  0  0  0  0
  128.7400  138.0190  156.7130 C   0  0  0  0  0  0  0  0  0  0  0  0
  129.2850  138.3450  157.8990 N   0  0  0  0  0  0  0  0  0  0  0  0
  127.4740  137.3390  154.3640 C   0  0  0  0  0  0  0  0  0  0  0  0
  127.3630  137.8870  156.6800 C   0  0  0  0  0  0  0  0  0  0  0  0
  126.7180  137.5460  155.5010 C   0  0  0  0  0  0  0  0  0  0  0  0
  126.8620  137.0040  153.2050 F   0  0  0  0  0  0  0  0  0  0  0  0
  135.0170  137.7750  150.4990 C   0  0  0  0  0  0  0  0  0  0  0  0
  135.6510  138.8550  150.5660 O   0  0  0  0  0  0  0  0  0  0  0  0
  134.8120  137.1250  149.2580 N   0  0  0  0  0  0  0  0  0  0  0  0
  135.2530  137.5550  148.0070 C   0  0  0  0  0  0  0  0  0  0  0  0
  136.4250  137.2170  147.3850 C   0  0  0  0  0  0  0  0  0  0  0  0
  134.4290  138.4330  147.2840 C   0  0  0  0  0  0  0  0  0  0  0  0
  136.7790  137.7060  146.1220 C   0  0  0  0  0  0  0  0  0  0  0  0
  134.7670  138.9130  146.0510 C   0  0  0  0  0  0  0  0  0  0  0  0
  135.9530  138.5600  145.4430 C   0  0  0  0  0  0  0  0  0  0  0  0
  136.3360  139.1970  143.8760 Cl  0  0  0  0  0  0  0  0  0  0  0  0
  134.8875  137.7032  152.6061 H   0  0  0  0  0  0  0  0  0  0  0  0
  135.0121  135.3963  152.8131 H   0  0  0  0  0  0  0  0  0  0  0  0
  134.1623  135.1036  151.2578 H   0  0  0  0  0  0  0  0  0  0  0  0
  135.8821  135.6222  151.2578 H   0  0  0  0  0  0  0  0  0  0  0  0
  132.5076  137.3288  150.9189 H   0  0  0  0  0  0  0  0  0  0  0  0
  133.4051  139.4137  152.0139 H   0  0  0  0  0  0  0  0  0  0  0  0
  131.6278  138.9113  151.9623 H   0  0  0  0  0  0  0  0  0  0  0  0
  131.3625  136.0519  152.3498 H   0  0  0  0  0  0  0  0  0  0  0  0
  133.0016  135.3028  152.4638 H   0  0  0  0  0  0  0  0  0  0  0  0
  133.5007  138.9170  154.3316 H   0  0  0  0  0  0  0  0  0  0  0  0
  131.9924  139.8445  154.1000 H   0  0  0  0  0  0  0  0  0  0  0  0
  131.9259  135.6676  154.7330 H   0  0  0  0  0  0  0  0  0  0  0  0
  133.4659  136.5381  154.5621 H   0  0  0  0  0  0  0  0  0  0  0  0
  130.8236  137.6751  153.7771 H   0  0  0  0  0  0  0  0  0  0  0  0
  132.5042  138.3985  156.9698 H   0  0  0  0  0  0  0  0  0  0  0  0
  131.0898  138.7400  158.9264 H   0  0  0  0  0  0  0  0  0  0  0  0
  129.4111  137.3101  153.5162 H   0  0  0  0  0  0  0  0  0  0  0  0
  126.7761  138.0537  157.5953 H   0  0  0  0  0  0  0  0  0  0  0  0
  125.6233  137.4422  155.4718 H   0  0  0  0  0  0  0  0  0  0  0  0
  134.2817  136.2423  149.2817 H   0  0  0  0  0  0  0  0  0  0  0  0
  137.1167  136.5332  147.8988 H   0  0  0  0  0  0  0  0  0  0  0  0
  133.4730  138.7466  147.7288 H   0  0  0  0  0  0  0  0  0  0  0  0
  137.7337  137.3998  145.6694 H   0  0  0  0  0  0  0  0  0  0  0  0
  134.0783  139.5958  145.5319 H   0  0  0  0  0  0  0  0  0  0  0  0
  2  1  1  0
  3  1  1  0
  4  3  1  0
  5  3  1  0
  6  4  1  0
  7  5  1  0
  8  7  1  0
  8  6  1  0
  9  8  1  0
 10  9  2  0
 11  9  1  0
 12 10  1  0
 13 11  2  0
 14 11  1  0
 15 14  1  0
 15 12  2  0
 16 13  1  0
 17 14  2  0
 18 17  1  0
 18 16  2  0
 19 16  1  0
 20  1  1  0
 21 20  2  0
 22 20  1  0
 23 22  1  0
 24 23  2  0
 25 23  1  0
 26 24  1  0
 27 25  2  0
 28 27  1  0
 28 26  2  0
 29 28  1  0
  1 30  1  0
  2 31  1  0
  2 32  1  0
  2 33  1  0
  3 34  1  0
  4 35  1  0
  4 36  1  0
  5 37  1  0
  5 38  1  0
  6 39  1  0
  6 40  1  0
  7 41  1  0
  7 42  1  0
  8 43  1  0
 10 44  1  0
 12 45  1  0
 13 46  1  0
 17 47  1  0
 18 48  1  0
 22 49  1  0
 24 50  1  0
 25 51  1  0
 26 52  1  0
 27 53  1  0
M  END
$$$$
