
     RDKit          3D

 66 69  0  0  0  0  0  0  0  0999 V2000
  135.7520  136.9230  150.8390 C   0  0  0  0  0  0  0  0  0  0  0  0
  136.4030  137.5780  149.6280 C   0  0  0  0  0  0  0  0  0  0  0  0
  134.3310  136.3790  150.7290 C   0  0  0  0  0  0  0  0  0  0  0  0
  133.5560  136.4870  149.4250 C   0  0  0  0  0  0  0  0  0  0  0  0
  134.2080  137.1420  148.2150 C   0  0  0  0  0  0  0  0  0  0  0  0
  135.6340  137.6690  148.3140 C   0  0  0  0  0  0  0  0  0  0  0  0
  136.2310  138.3210  147.1710 N   0  0  0  0  0  0  0  0  0  0  0  0
  136.7740  137.6580  146.0040 C   0  0  0  0  0  0  0  0  0  0  0  0
  136.7890  136.4810  145.8920 O   0  0  0  0  0  0  0  0  0  0  0  0
  137.2880  138.5980  144.9210 C   0  0  0  0  0  0  0  0  0  0  0  0
  138.4840  138.6690  144.3470 N   0  0  0  0  0  0  0  0  0  0  0  0
  138.4370  139.6880  143.4050 N   0  0  0  0  0  0  0  0  0  0  0  0
  137.2180  140.2120  143.4230 C   0  0  0  0  0  0  0  0  0  0  0  0
  136.4930  139.5430  144.3540 C   0  0  0  0  0  0  0  0  0  0  0  0
  139.6440  137.8490  144.6380 C   0  0  0  0  0  0  0  0  0  0  0  0
  136.6850  141.3560  142.5670 C   0  0  0  0  0  0  0  0  0  0  0  0
  135.9230  140.8550  141.5540 F   0  0  0  0  0  0  0  0  0  0  0  0
  137.7250  142.0680  142.0480 F   0  0  0  0  0  0  0  0  0  0  0  0
  135.9200  142.1690  143.3480 F   0  0  0  0  0  0  0  0  0  0  0  0
  133.5370  135.6090  152.1590 S   0  0  0  0  0  0  0  0  0  0  0  0
  134.5110  135.0860  153.1110 O   0  0  0  0  0  0  0  0  0  0  0  0
  132.8280  134.3960  151.7550 O   0  0  0  0  0  0  0  0  0  0  0  0
  132.4930  136.7660  152.8680 N   0  0  0  0  0  0  0  0  0  0  0  0
  132.0200  136.5850  154.3050 C   0  0  0  0  0  0  0  0  0  0  0  0
  132.7160  138.2560  152.6300 C   0  0  0  0  0  0  0  0  0  0  0  0
  132.8930  137.3100  155.3180 C   0  0  0  0  0  0  0  0  0  0  0  0
  133.5860  138.9280  153.6800 C   0  0  0  0  0  0  0  0  0  0  0  0
  133.0800  138.7170  155.0170 C   0  0  0  0  0  0  0  0  0  0  0  0
  130.5990  137.0820  154.4280 C   0  0  0  0  0  0  0  0  0  0  0  0
  129.6570  135.9920  153.9260 C   0  0  0  0  0  0  0  0  0  0  0  0
  128.4560  136.3460  154.1070 N   0  0  0  0  0  0  0  0  0  0  0  0
  127.8420  135.4720  154.9820 C   0  0  0  0  0  0  0  0  0  0  0  0
  128.4000  137.6510  154.5550 C   0  0  0  0  0  0  0  0  0  0  0  0
  126.4000  135.8880  155.2630 C   0  0  0  0  0  0  0  0  0  0  0  0
  126.9650  138.0850  154.8490 C   0  0  0  0  0  0  0  0  0  0  0  0
  126.3180  137.2000  155.6940 O   0  0  0  0  0  0  0  0  0  0  0  0
  136.3032  136.8426  151.7875 H   0  0  0  0  0  0  0  0  0  0  0  0
  137.4229  137.9835  149.7006 H   0  0  0  0  0  0  0  0  0  0  0  0
  132.5308  136.0944  149.3564 H   0  0  0  0  0  0  0  0  0  0  0  0
  133.6506  137.2345  147.2712 H   0  0  0  0  0  0  0  0  0  0  0  0
  136.2741  139.3500  147.1880 H   0  0  0  0  0  0  0  0  0  0  0  0
  135.4396  139.7333  144.6072 H   0  0  0  0  0  0  0  0  0  0  0  0
  139.7674  137.7618  145.7276 H   0  0  0  0  0  0  0  0  0  0  0  0
  139.5039  136.8482  144.2036 H   0  0  0  0  0  0  0  0  0  0  0  0
  140.5407  138.3150  144.2036 H   0  0  0  0  0  0  0  0  0  0  0  0
  132.0856  135.5108  154.5325 H   0  0  0  0  0  0  0  0  0  0  0  0
  133.1989  138.3809  151.6496 H   0  0  0  0  0  0  0  0  0  0  0  0
  131.7281  138.7371  152.6809 H   0  0  0  0  0  0  0  0  0  0  0  0
  132.4215  137.2252  156.3082 H   0  0  0  0  0  0  0  0  0  0  0  0
  133.8858  136.8373  155.2875 H   0  0  0  0  0  0  0  0  0  0  0  0
  134.6034  138.5148  153.6158 H   0  0  0  0  0  0  0  0  0  0  0  0
  133.5832  140.0101  153.4822 H   0  0  0  0  0  0  0  0  0  0  0  0
  133.7952  139.1410  155.7372 H   0  0  0  0  0  0  0  0  0  0  0  0
  132.0993  139.2101  155.0880 H   0  0  0  0  0  0  0  0  0  0  0  0
  130.3756  137.3089  155.4809 H   0  0  0  0  0  0  0  0  0  0  0  0
  130.4677  137.9965  153.8309 H   0  0  0  0  0  0  0  0  0  0  0  0
  129.8306  135.8253  152.8527 H   0  0  0  0  0  0  0  0  0  0  0  0
  129.8490  135.0623  154.4816 H   0  0  0  0  0  0  0  0  0  0  0  0
  127.8446  134.4639  154.5419 H   0  0  0  0  0  0  0  0  0  0  0  0
  128.3976  135.4843  155.9313 H   0  0  0  0  0  0  0  0  0  0  0  0
  128.9948  137.7377  155.4763 H   0  0  0  0  0  0  0  0  0  0  0  0
  128.8010  138.3029  153.7649 H   0  0  0  0  0  0  0  0  0  0  0  0
  125.8118  135.7792  154.3399 H   0  0  0  0  0  0  0  0  0  0  0  0
  126.0071  135.2410  156.0611 H   0  0  0  0  0  0  0  0  0  0  0  0
  126.9842  139.0779  155.3220 H   0  0  0  0  0  0  0  0  0  0  0  0
  126.4154  138.1084  153.8964 H   0  0  0  0  0  0  0  0  0  0  0  0
  2  1  2  0
  3  1  1  0
  4  3  2  0
  5  4  1  0
  6  5  2  0
  6  2  1  0
  7  6  1  0
  8  7  1  0
  9  8  2  0
 10  8  1  0
 11 10  1  0
 12 11  1  0
 13 12  2  0
 14 13  1  0
 14 10  2  0
 15 11  1  0
 16 13  1  0
 17 16  1  0
 18 16  1  0
 19 16  1  0
 20  3  1  0
 21 20  2  0
 22 20  2  0
 23 20  1  0
 24 23  1  0
 25 23  1  0
 26 24  1  0
 27 25  1  0
 28 27  1  0
 28 26  1  0
 29 24  1  0
 30 29  1  0
 31 30  1  0
 32 31  1  0
 33 31  1  0
 34 32  1  0
 35 33  1  0
 36 34  1  0
 36 35  1  0
  1 37  1  0
  2 38  1  0
  4 39  1  0
  5 40  1  0
  7 41  1  0
 14 42  1  0
 15 43  1  0
 15 44  1  0
 15 45  1  0
 24 46  1  0
 25 47  1  0
 25 48  1  0
 26 49  1  0
 26 50  1  0
 27 51  1  0
 27 52  1  0
 28 53  1  0
 28 54  1  0
 29 55  1  0
 29 56  1  0
 30 57  1  0
 30 58  1  0
 32 59  1  0
 32 60  1  0
 33 61  1  0
 33 62  1  0
 34 63  1  0
 34 64  1  0
 35 65  1  0
 35 66  1  0
M  END
$$$$
